Version 4
SHEET 1 1324 792
WIRE -848 -528 -1104 -528
WIRE -704 -528 -848 -528
WIRE 96 -528 -704 -528
WIRE 96 -224 96 -528
WIRE 80 -176 32 -176
WIRE 320 -176 272 -176
WIRE 128 -144 128 -176
WIRE 272 -144 272 -176
WIRE 272 -144 128 -144
WIRE 32 -48 32 -176
WIRE 32 -48 -320 -48
WIRE -432 0 -576 0
WIRE 176 0 176 -176
WIRE 576 0 176 0
WIRE -576 48 -576 0
WIRE 32 80 32 -48
WIRE 80 80 32 80
WIRE 176 80 176 0
WIRE 160 128 160 112
WIRE -432 192 -432 0
WIRE 160 208 160 128
WIRE 160 208 80 208
WIRE -704 224 -704 -528
WIRE -480 224 -704 224
WIRE 80 224 80 208
WIRE 80 224 -384 224
WIRE 576 240 576 0
WIRE 800 240 576 240
WIRE 80 288 80 224
WIRE 64 336 16 336
WIRE 304 336 256 336
WIRE 112 368 112 336
WIRE 256 368 256 336
WIRE 256 368 112 368
WIRE 16 480 16 336
WIRE 16 480 -336 480
WIRE 160 496 160 336
WIRE 576 496 576 240
WIRE 576 496 160 496
WIRE 16 592 16 480
WIRE 64 592 16 592
WIRE 160 592 160 496
WIRE -848 784 -848 -528
WIRE 144 784 144 640
WIRE 144 784 -848 784
FLAG 320 -96 0
FLAG 128 80 0
FLAG 304 416 0
FLAG 112 592 0
FLAG -576 128 0
FLAG 800 240 out
IOPIN 800 240 Out
FLAG -1104 -528 S
IOPIN -1104 -528 In
FLAG -320 -48 I0
IOPIN -320 -48 In
FLAG -336 480 I1
IOPIN -336 480 In
SYMBOL nmos4 80 128 R270
SYMATTR InstName M1
SYMATTR Value2 l=2 w=10
SYMBOL pmos4 176 -224 R90
SYMATTR InstName M2
SYMATTR Value2 l=2 w=10
SYMBOL voltage 320 -192 R0
WINDOW 123 0 0 Left 0
WINDOW 39 0 0 Left 0
SYMATTR InstName V1
SYMATTR Value 5
SYMBOL nmos4 64 640 R270
SYMATTR InstName M3
SYMATTR Value2 l=2 w=10
SYMBOL pmos4 160 288 R90
SYMATTR InstName M4
SYMATTR Value2 l=2 w=10
SYMBOL voltage 304 320 R0
WINDOW 123 0 0 Left 0
WINDOW 39 0 0 Left 0
SYMATTR InstName V2
SYMATTR Value 5
SYMBOL inverter_depletionload -400 240 R0
SYMATTR InstName X1
SYMBOL voltage -576 32 R0
WINDOW 3 24 44 Left 2
WINDOW 123 0 0 Left 0
WINDOW 39 0 0 Left 0
SYMATTR InstName V3
SYMATTR Value 5
TEXT 656 -488 Left 2 !.model nmos1 nmos(W=10u L=1u vto=1 kp=20u)
TEXT 680 -432 Left 2 !.model nmos2 nmos(W=10u L=1u vto=1 kp=20u)
TEXT 696 -376 Left 2 !.model pmos1 pmos(W=10u L=20u vto=-1 kp=20u)
TEXT 728 -320 Left 2 !.model pmos2 pmos(W=20u L=1u vto=-1 kp=20u)
