Version 4
SHEET 1 880 680
WIRE 0 0 -336 0
WIRE -336 48 -336 0
WIRE 0 48 0 0
WIRE 0 48 -32 48
WIRE 96 48 0 48
WIRE 560 48 256 48
WIRE 672 48 608 48
WIRE -128 64 -224 64
WIRE 304 64 192 64
WIRE 0 80 -32 80
WIRE 96 80 0 80
WIRE -224 96 -224 64
WIRE -128 112 -128 64
WIRE 0 112 0 80
WIRE 0 112 -128 112
WIRE 304 112 304 64
WIRE 144 128 144 112
WIRE 256 128 256 48
WIRE 256 128 144 128
WIRE 448 128 400 128
WIRE 144 160 144 128
WIRE 256 160 256 128
WIRE 640 176 352 176
WIRE -16 192 -128 192
WIRE -128 208 -128 192
WIRE -128 208 -320 208
WIRE -320 224 -320 208
WIRE -16 224 -16 192
WIRE -16 224 -32 224
WIRE 96 224 -16 224
WIRE 352 224 352 176
WIRE 304 240 304 144
WIRE 304 240 192 240
WIRE -16 256 -32 256
WIRE 96 256 -16 256
WIRE -16 288 -16 256
WIRE -16 288 -192 288
WIRE 144 304 144 288
WIRE 608 304 608 48
WIRE 608 304 144 304
WIRE 144 336 144 304
FLAG -32 48 I0
IOPIN -32 48 In
FLAG -32 80 I1
IOPIN -32 80 In
FLAG -32 224 I2
IOPIN -32 224 In
FLAG -32 256 I3
IOPIN -32 256 In
FLAG 144 160 a
IOPIN 144 160 In
FLAG 144 336 b
IOPIN 144 336 In
FLAG 352 224 c
IOPIN 352 224 In
FLAG 448 128 out
IOPIN 448 128 Out
FLAG -336 128 0
FLAG -224 176 0
FLAG -320 304 0
FLAG -192 368 0
FLAG 560 128 0
FLAG 672 128 0
FLAG 640 256 0
SYMBOL MUX_2_1 192 96 R0
SYMATTR InstName X1
SYMBOL MUX_2_1 192 272 R0
SYMATTR InstName X2
SYMBOL MUX_2_1 400 160 R0
SYMATTR InstName X3
SYMBOL voltage -336 32 R0
WINDOW 123 0 0 Left 0
WINDOW 39 0 0 Left 0
SYMATTR InstName I0
SYMATTR Value PULSE(0 5 0 0.0001 0.0001 2 4 10)
SYMBOL voltage -224 80 R0
WINDOW 123 0 0 Left 0
WINDOW 39 0 0 Left 0
SYMATTR InstName I1
SYMATTR Value PULSE(0 5 0.5 0.00001 0.0001 2 4 10)
SYMBOL voltage -320 208 R0
WINDOW 123 0 0 Left 0
WINDOW 39 0 0 Left 0
SYMATTR InstName I2
SYMATTR Value PULSE(0 5 1 1n 1n 2 4 10)
SYMBOL voltage -192 272 R0
WINDOW 123 0 0 Left 0
WINDOW 39 0 0 Left 0
SYMATTR InstName I3
SYMATTR Value PULSE(0 5 1.5 1n 1n 2 4 10)
SYMBOL voltage 560 32 R0
WINDOW 123 0 0 Left 0
WINDOW 39 0 0 Left 0
SYMATTR InstName a
SYMATTR Value 5
SYMBOL voltage 672 32 R0
WINDOW 123 0 0 Left 0
WINDOW 39 0 0 Left 0
SYMATTR InstName b
SYMATTR Value 5
SYMBOL voltage 640 160 R0
WINDOW 123 0 0 Left 0
WINDOW 39 0 0 Left 0
SYMATTR InstName c
SYMATTR Value 5
TEXT -370 414 Left 2 !.tran 10
