Version 4
SHEET 1 880 680
WIRE -2176 -720 -2432 -720
WIRE -2032 -720 -2176 -720
WIRE -1232 -720 -2032 -720
WIRE -2432 -592 -2432 -720
WIRE -1232 -416 -1232 -720
WIRE -1248 -368 -1296 -368
WIRE -1008 -368 -1056 -368
WIRE -1200 -336 -1200 -368
WIRE -1056 -336 -1056 -368
WIRE -1056 -336 -1200 -336
WIRE -1296 -240 -1296 -368
WIRE -1296 -240 -1648 -240
WIRE -1648 -208 -1648 -240
WIRE -1760 -192 -1904 -192
WIRE -1152 -192 -1152 -368
WIRE -752 -192 -1152 -192
WIRE -1904 -144 -1904 -192
WIRE -1296 -112 -1296 -240
WIRE -1248 -112 -1296 -112
WIRE -1152 -112 -1152 -192
WIRE -1168 -64 -1168 -80
WIRE -1760 0 -1760 -192
WIRE -1168 16 -1168 -64
WIRE -1168 16 -1248 16
WIRE -2032 32 -2032 -720
WIRE -1808 32 -2032 32
WIRE -1248 32 -1248 16
WIRE -1248 32 -1712 32
WIRE -752 48 -752 -192
WIRE -528 48 -752 48
WIRE -1248 96 -1248 32
WIRE -1264 144 -1312 144
WIRE -1024 144 -1072 144
WIRE -1216 176 -1216 144
WIRE -1072 176 -1072 144
WIRE -1072 176 -1216 176
WIRE -1312 288 -1312 144
WIRE -1312 288 -1664 288
WIRE -1168 304 -1168 144
WIRE -752 304 -752 48
WIRE -752 304 -1168 304
WIRE -1664 336 -1664 288
WIRE -1312 400 -1312 288
WIRE -1264 400 -1312 400
WIRE -1168 400 -1168 304
WIRE -2176 592 -2176 -720
WIRE -1184 592 -1184 448
WIRE -1184 592 -2176 592
WIRE -1168 592 -1184 592
FLAG -1008 -288 0
FLAG -1200 -112 0
FLAG -1024 224 0
FLAG -1216 400 0
FLAG -2432 -512 0
FLAG -1904 -64 0
FLAG -1664 416 0
FLAG -1648 -128 0
FLAG -528 48 out
IOPIN -528 48 Out
SYMBOL nmos4 -1248 -64 R270
SYMATTR InstName M1
SYMATTR Value2 l=2 w=10
SYMBOL pmos4 -1152 -416 R90
SYMATTR InstName M2
SYMATTR Value2 l=2 w=10
SYMBOL voltage -1008 -384 R0
WINDOW 123 0 0 Left 0
WINDOW 39 0 0 Left 0
SYMATTR InstName V4
SYMATTR Value 5
SYMBOL nmos4 -1264 448 R270
SYMATTR InstName M3
SYMATTR Value2 l=2 w=10
SYMBOL pmos4 -1168 96 R90
SYMATTR InstName M4
SYMATTR Value2 l=2 w=10
SYMBOL voltage -1024 128 R0
WINDOW 123 0 0 Left 0
WINDOW 39 0 0 Left 0
SYMATTR InstName V1
SYMATTR Value 5
SYMBOL voltage -2432 -608 R0
WINDOW 123 0 0 Left 0
WINDOW 39 0 0 Left 0
SYMATTR InstName S
SYMATTR Value 0
SYMBOL inverter_depletionload -1728 48 R0
SYMATTR InstName X1
SYMBOL voltage -1904 -160 R0
WINDOW 3 24 44 Left 2
WINDOW 123 0 0 Left 0
WINDOW 39 0 0 Left 0
SYMATTR InstName V3
SYMATTR Value 5
SYMBOL voltage -1648 -224 R0
WINDOW 123 0 0 Left 0
WINDOW 39 0 0 Left 0
SYMATTR InstName V2
SYMATTR Value PULSE(0 5 1n 1n 1n 2 4 10)
SYMBOL voltage -1664 320 R0
WINDOW 123 0 0 Left 0
WINDOW 39 0 0 Left 0
SYMATTR InstName V5
SYMATTR Value PULSE(0 5 2 0.0001 0.00001 2 4 10)
TEXT -2466 458 Left 2 !.tran 10
TEXT -672 -680 Left 2 !.model nmos1 nmos(W=10u L=1u vto=1 kp=20u)
TEXT -648 -624 Left 2 !.model nmos2 nmos(W=10u L=1u vto=1 kp=20u)
TEXT -632 -568 Left 2 !.model pmos1 pmos(W=10u L=20u vto=-1 kp=20u)
TEXT -600 -512 Left 2 !.model pmos2 pmos(W=20u L=1u vto=-1 kp=20u)
